<?xml version="1.0" encoding="UTF-8"?>

<!-- generated on 2025-09-08 00:11:48 by Eclipse SUMO netedit Version 1.24.0
<neteditConfiguration xmlns:xsi="http://www.w3.org/2001/XMLSchema-instance" xsi:noNamespaceSchemaLocation="http://sumo.dlr.de/xsd/neteditConfiguration.xsd">

    <input>
        <sumocfg-file value="C:\Users\hpdem\OneDrive\Documents\Desktop\Traffic\Test_Traffic\Test_Traffic.sumocfg"/>
        <route-files value="C:\Users\hpdem\OneDrive\Documents\Desktop\Traffic\Test_Traffic\Test_Traffic.rou.xml"/>
        <sumo-net-file value="C:\Users\hpdem\OneDrive\Documents\Desktop\Traffic\Test_Traffic\Test_Traffic.net.xml"/>
    </input>

    <output>
        <output-file value="C:\Users\hpdem\OneDrive\Documents\Desktop\Traffic\Test_Traffic\Test_Traffic.net.xml"/>
    </output>

    <processing>
        <offset.disable-normalization value="true"/>
    </processing>

    <junctions>
        <no-turnarounds value="true"/>
    </junctions>

    <netedit>
        <new-network value="false"/>
    </netedit>

</neteditConfiguration>
-->

<net version="1.20" junctionCornerDetail="5" limitTurnSpeed="5.50" xmlns:xsi="http://www.w3.org/2001/XMLSchema-instance" xsi:noNamespaceSchemaLocation="http://sumo.dlr.de/xsd/net_file.xsd">

    <location netOffset="0.00,0.00" convBoundary="-561.87,-570.80,560.68,568.10" origBoundary="10000000000.00,10000000000.00,-10000000000.00,-10000000000.00" projParameter="!"/>

    <edge id=":Node_1_0" function="internal">
        <lane id=":Node_1_0_0" index="0" speed="13.89" length="21.44" shape="-436.13,28.33 -440.51,31.65 -445.66,31.18 -450.86,30.67 -455.39,33.91"/>
        <lane id=":Node_1_0_1" index="1" speed="13.89" length="21.44" shape="-438.90,26.72 -443.27,30.04 -448.40,29.53 -453.59,29.00 -458.11,32.22"/>
    </edge>
    <edge id=":Node_1_2" function="internal">
        <lane id=":Node_1_2_0" index="0" speed="7.68" length="7.38" shape="-438.90,26.72 -444.22,30.92 -444.81,30.90"/>
    </edge>
    <edge id=":Node_1_14" function="internal">
        <lane id=":Node_1_14_0" index="0" speed="7.68" length="18.64" shape="-444.81,30.90 -450.66,30.66 -455.60,26.83 -456.46,20.35"/>
    </edge>
    <edge id=":Node_1_3" function="internal">
        <lane id=":Node_1_3_0" index="0" speed="7.39" length="23.94" shape="-450.29,22.03 -452.16,30.33 -451.81,33.35 -449.23,31.08 -444.43,23.51"/>
    </edge>
    <edge id=":Node_1_4" function="internal">
        <lane id=":Node_1_4_0" index="0" speed="13.89" length="12.55" shape="-450.29,22.03 -451.32,25.75 -452.20,28.25 -453.40,30.62 -455.39,33.91"/>
        <lane id=":Node_1_4_1" index="1" speed="13.89" length="12.55" shape="-453.38,21.19 -454.34,24.64 -455.15,26.97 -456.26,29.16 -458.11,32.22"/>
    </edge>
    <edge id=":Node_1_6" function="internal">
        <lane id=":Node_1_6_0" index="0" speed="13.89" length="10.22" shape="-463.55,28.85 -461.98,26.26 -461.04,24.40 -460.36,22.43 -459.55,19.51"/>
        <lane id=":Node_1_6_1" index="1" speed="13.89" length="11.15" shape="-460.83,30.54 -459.12,27.71 -458.10,25.68 -457.35,23.53 -456.46,20.35"/>
    </edge>
    <edge id=":Node_1_8" function="internal">
        <lane id=":Node_1_8_0" index="0" speed="13.89" length="20.07" shape="-460.83,30.54 -456.91,27.33 -452.54,27.08 -448.22,26.80 -444.43,23.51"/>
        <lane id=":Node_1_8_1" index="1" speed="13.89" length="20.07" shape="-460.83,30.54 -456.32,27.33 -451.15,27.89 -446.03,28.41 -441.66,25.12"/>
    </edge>
    <edge id=":Node_1_10" function="internal">
        <lane id=":Node_1_10_0" index="0" speed="7.41" length="21.99" shape="-445.75,35.15 -445.87,28.01 -447.51,25.42 -450.69,27.39 -455.39,33.91"/>
    </edge>
    <edge id=":Node_1_11" function="internal">
        <lane id=":Node_1_11_0" index="0" speed="13.89" length="22.55" shape="-445.75,35.15 -447.98,29.67 -453.37,27.05 -458.40,24.56 -459.55,19.51"/>
        <lane id=":Node_1_11_1" index="1" speed="13.89" length="22.55" shape="-442.56,35.37 -444.81,30.07 -450.23,27.65 -455.30,25.33 -456.46,20.35"/>
    </edge>
    <edge id=":Node_1_13" function="internal">
        <lane id=":Node_1_13_0" index="0" speed="13.89" length="11.26" shape="-439.37,35.59 -439.95,32.35 -441.39,30.09 -442.39,27.96 -441.66,25.12"/>
    </edge>
    <edge id=":Node_10_0" function="internal">
        <lane id=":Node_10_0_0" index="0" speed="13.89" length="30.65" shape="63.41,-399.28 60.62,-407.74 59.10,-413.73 57.05,-419.44 52.66,-427.08"/>
        <lane id=":Node_10_0_1" index="1" speed="13.89" length="30.65" shape="66.40,-400.43 63.55,-409.01 61.94,-415.19 59.79,-421.09 55.33,-428.84"/>
        <lane id=":Node_10_0_2" index="2" speed="13.89" length="30.65" shape="69.39,-401.57 66.49,-410.25 64.77,-416.64 62.51,-422.75 58.00,-430.60"/>
    </edge>
    <edge id=":Node_10_3" function="internal">
        <lane id=":Node_10_3_0" index="0" speed="13.89" length="32.72" shape="66.01,-435.89 70.67,-427.75 73.27,-421.00 75.33,-413.97 78.35,-405.00"/>
        <lane id=":Node_10_3_1" index="1" speed="13.89" length="32.72" shape="63.34,-434.13 67.95,-426.09 70.44,-419.55 72.39,-412.73 75.36,-403.85"/>
        <lane id=":Node_10_3_2" index="2" speed="13.89" length="32.72" shape="60.67,-432.37 65.23,-424.42 67.61,-418.10 69.45,-411.50 72.37,-402.71"/>
    </edge>
    <edge id=":Node_11_0" function="internal">
        <lane id=":Node_11_0_0" index="0" speed="13.89" length="68.64" shape="-25.82,-545.99 -33.94,-552.23 -47.61,-554.70 -66.82,-553.41 -91.56,-548.35"/>
        <lane id=":Node_11_0_1" index="1" speed="13.89" length="72.51" shape="-23.15,-547.76 -31.96,-554.78 -46.43,-557.74 -66.56,-556.63 -92.35,-551.46"/>
        <lane id=":Node_11_0_2" index="2" speed="13.89" length="76.38" shape="-20.48,-549.52 -29.97,-557.34 -45.25,-560.79 -66.30,-559.86 -93.13,-554.56"/>
    </edge>
    <edge id=":Node_11_3" function="internal">
        <lane id=":Node_11_3_0" index="0" speed="13.89" length="88.08" shape="-95.48,-563.87 -65.52,-569.54 -41.70,-569.93 -24.01,-565.01 -12.46,-554.81"/>
        <lane id=":Node_11_3_1" index="1" speed="13.89" length="84.17" shape="-94.69,-560.76 -65.78,-566.32 -42.88,-566.88 -26.00,-562.46 -15.13,-553.04"/>
        <lane id=":Node_11_3_2" index="2" speed="13.89" length="80.27" shape="-93.91,-557.66 -66.04,-563.09 -44.06,-563.83 -27.99,-559.90 -17.80,-551.28"/>
    </edge>
    <edge id=":Node_12_0" function="internal">
        <lane id=":Node_12_0_0" index="0" speed="13.89" length="48.21" shape="-262.68,-505.22 -274.40,-501.33 -286.41,-495.72 -296.68,-489.21 -303.22,-482.63"/>
        <lane id=":Node_12_0_1" index="1" speed="13.89" length="48.21" shape="-263.47,-508.33 -275.49,-504.22 -288.15,-498.13 -299.09,-491.14 -305.93,-484.34"/>
    </edge>
    <edge id=":Node_12_2" function="internal">
        <lane id=":Node_12_2_0" index="0" speed="13.89" length="2.95" shape="-264.25,-511.43 -267.17,-511.03"/>
    </edge>
    <edge id=":Node_12_9" function="internal">
        <lane id=":Node_12_9_0" index="0" speed="13.89" length="43.91" shape="-267.17,-511.03 -277.71,-509.58 -288.94,-511.38 -297.96,-516.84 -304.76,-525.94"/>
    </edge>
    <edge id=":Node_12_3" function="internal">
        <lane id=":Node_12_3_0" index="0" speed="13.77" length="36.23" shape="-299.08,-528.90 -294.23,-522.97 -287.20,-519.63 -277.99,-518.89 -266.60,-520.74"/>
        <lane id=":Node_12_3_1" index="1" speed="13.89" length="40.53" shape="-301.92,-527.42 -296.41,-520.55 -288.55,-516.63 -278.35,-515.65 -265.81,-517.63"/>
    </edge>
    <edge id=":Node_12_5" function="internal">
        <lane id=":Node_12_5_0" index="0" speed="13.89" length="45.38" shape="-301.92,-527.42 -298.24,-517.18 -297.68,-506.58 -300.24,-495.63 -305.93,-484.34"/>
    </edge>
    <edge id=":Node_12_6" function="internal">
        <lane id=":Node_12_6_0" index="0" speed="13.89" length="38.69" shape="-311.34,-487.75 -306.41,-497.49 -304.14,-506.85 -304.54,-515.84 -307.60,-524.46"/>
    </edge>
    <edge id=":Node_12_7" function="internal">
        <lane id=":Node_12_7_0" index="0" speed="13.89" length="53.88" shape="-311.34,-487.75 -304.02,-495.47 -292.03,-504.49 -278.31,-512.61 -265.81,-517.63"/>
        <lane id=":Node_12_7_1" index="1" speed="13.89" length="53.88" shape="-308.63,-486.04 -301.61,-493.55 -290.28,-502.08 -277.23,-509.72 -265.03,-514.53"/>
    </edge>
    <edge id=":Node_13_0" function="internal">
        <lane id=":Node_13_0_0" index="0" speed="12.53" length="20.93" shape="-459.35,-235.28 -463.29,-228.55 -465.80,-223.12 -466.88,-218.98 -466.52,-216.13"/>
        <lane id=":Node_13_0_1" index="1" speed="13.43" length="24.11" shape="-462.06,-236.99 -466.36,-229.50 -469.02,-223.29 -470.04,-218.37 -469.40,-214.73"/>
    </edge>
    <edge id=":Node_13_2" function="internal">
        <lane id=":Node_13_2_0" index="0" speed="13.89" length="32.16" shape="-462.06,-236.99 -466.80,-231.67 -472.03,-227.13 -476.26,-221.45 -478.00,-212.73"/>
        <lane id=":Node_13_2_1" index="1" speed="13.89" length="32.16" shape="-462.06,-236.99 -467.30,-231.74 -473.63,-227.31 -478.96,-221.66 -481.20,-212.73"/>
        <lane id=":Node_13_2_2" index="2" speed="13.89" length="32.16" shape="-462.06,-236.99 -467.80,-231.74 -475.23,-227.31 -481.66,-221.66 -484.40,-212.73"/>
    </edge>
    <edge id=":Node_13_5" function="internal">
        <lane id=":Node_13_5_0" index="0" speed="6.07" length="10.71" shape="-475.28,-242.29 -473.23,-239.31 -471.24,-238.00 -469.32,-238.36 -467.47,-240.40"/>
        <lane id=":Node_13_5_1" index="1" speed="6.96" length="14.57" shape="-475.28,-242.29 -472.40,-238.00 -469.68,-235.96 -467.14,-236.20 -464.76,-238.69"/>
    </edge>
    <edge id=":Node_13_7" function="internal">
        <lane id=":Node_13_7_0" index="0" speed="13.89" length="27.06" shape="-478.09,-240.76 -466.52,-216.13"/>
        <lane id=":Node_13_7_1" index="1" speed="13.89" length="27.06" shape="-480.90,-239.22 -469.40,-214.73"/>
        <lane id=":Node_13_7_2" index="2" speed="13.89" length="27.06" shape="-483.71,-237.69 -472.28,-213.33"/>
    </edge>
    <edge id=":Node_13_10" function="internal">
        <lane id=":Node_13_10_0" index="0" speed="13.89" length="24.48" shape="-486.51,-236.16 -483.25,-229.74 -481.70,-225.00 -481.22,-219.98 -481.20,-212.73"/>
        <lane id=":Node_13_10_1" index="1" speed="13.89" length="24.05" shape="-486.51,-236.16 -483.80,-229.80 -483.34,-224.98 -483.94,-219.90 -484.40,-212.73"/>
    </edge>
    <edge id=":Node_14_0" function="internal">
        <lane id=":Node_14_0_0" index="0" speed="13.44" length="6.70" shape="-478.00,-189.46 -477.83,-187.94 -477.38,-186.96 -476.73,-186.03 -475.95,-184.63"/>
        <lane id=":Node_14_0_1" index="1" speed="13.89" length="6.70" shape="-481.20,-189.46 -481.03,-187.53 -480.54,-186.27 -479.81,-185.07 -478.86,-183.30"/>
        <lane id=":Node_14_0_2" index="2" speed="13.89" length="6.70" shape="-484.40,-189.46 -484.22,-187.13 -483.71,-185.58 -482.88,-184.11 -481.77,-181.97"/>
    </edge>
    <edge id=":Node_2_0" function="internal">
        <lane id=":Node_2_0_0" index="0" speed="9.59" length="10.87" shape="-422.78,16.44 -425.93,17.00 -428.53,18.00 -430.57,19.43 -432.06,21.30"/>
    </edge>
    <edge id=":Node_2_1" function="internal">
        <lane id=":Node_2_1_0" index="0" speed="13.89" length="32.88" shape="-423.10,13.25 -435.50,13.62 -443.79,11.80 -447.97,7.80 -448.04,1.60"/>
    </edge>
    <edge id=":Node_2_2" function="internal">
        <lane id=":Node_2_2_0" index="0" speed="11.12" length="33.01" shape="-423.10,13.25 -430.37,11.51 -437.68,6.14 -443.15,-1.05 -444.89,-8.27"/>
    </edge>
    <edge id=":Node_2_3" function="internal">
        <lane id=":Node_2_3_0" index="0" speed="9.72" length="24.92" shape="-438.53,-7.55 -438.29,-0.61 -435.74,4.12 -430.89,6.61 -423.74,6.88"/>
    </edge>
    <edge id=":Node_2_4" function="internal">
        <lane id=":Node_2_4_0" index="0" speed="13.89" length="28.11" shape="-438.53,-7.55 -437.72,-0.32 -435.22,6.55 -433.45,13.18 -434.83,19.70"/>
    </edge>
    <edge id=":Node_2_5" function="internal">
        <lane id=":Node_2_5_0" index="0" speed="13.89" length="11.94" shape="-438.53,-7.55 -439.59,-4.31 -441.40,-2.49 -443.38,-0.71 -444.95,2.44"/>
        <lane id=":Node_2_5_1" index="1" speed="13.89" length="11.94" shape="-441.71,-7.91 -442.76,-4.81 -444.55,-3.09 -446.50,-1.41 -448.04,1.60"/>
    </edge>
    <edge id=":Node_2_7" function="internal">
        <lane id=":Node_2_7_0" index="0" speed="13.89" length="11.05" shape="-454.21,-0.08 -452.75,-2.82 -450.84,-4.30 -449.08,-5.80 -448.07,-8.63"/>
        <lane id=":Node_2_7_1" index="1" speed="13.89" length="11.05" shape="-451.12,0.76 -449.63,-2.12 -447.70,-3.70 -445.92,-5.30 -444.89,-8.27"/>
    </edge>
    <edge id=":Node_2_9" function="internal">
        <lane id=":Node_2_9_0" index="0" speed="13.89" length="19.65" shape="-451.12,0.76 -450.67,6.01 -445.90,9.32 -437.42,10.58"/>
    </edge>
    <edge id=":Node_2_10" function="internal">
        <lane id=":Node_2_10_0" index="0" speed="7.54" length="24.98" shape="-451.12,0.76 -434.83,19.70"/>
    </edge>
    <edge id=":Node_2_15" function="internal">
        <lane id=":Node_2_15_0" index="0" speed="13.89" length="14.01" shape="-437.42,10.58 -436.81,10.67 -423.42,10.07"/>
    </edge>
    <edge id=":Node_2_11" function="internal">
        <lane id=":Node_2_11_0" index="0" speed="5.95" length="14.77" shape="-440.36,16.49 -444.95,2.44"/>
    </edge>
    <edge id=":Node_2_12" function="internal">
        <lane id=":Node_2_12_0" index="0" speed="13.89" length="27.71" shape="-440.36,16.49 -439.61,10.31 -442.76,4.41 -446.63,-1.73 -448.07,-8.63"/>
        <lane id=":Node_2_12_1" index="1" speed="13.89" length="27.71" shape="-437.59,18.09 -436.78,11.72 -439.78,5.39 -443.52,-1.17 -444.89,-8.27"/>
    </edge>
    <edge id=":Node_2_14" function="internal">
        <lane id=":Node_2_14_0" index="0" speed="11.86" length="16.92" shape="-437.59,18.09 -435.19,14.97 -432.02,12.59 -428.10,10.95 -423.42,10.07"/>
    </edge>
    <edge id=":Node_3_0" function="internal">
        <lane id=":Node_3_0_0" index="0" speed="10.38" length="42.86" shape="-409.40,-83.27 -417.11,-94.93 -423.22,-97.88 -427.73,-92.11 -430.65,-77.62"/>
        <lane id=":Node_3_0_1" index="1" speed="11.69" length="54.81" shape="-406.57,-84.77 -416.48,-99.79 -424.32,-103.66 -430.10,-96.39 -433.83,-77.98"/>
    </edge>
    <edge id=":Node_3_2" function="internal">
        <lane id=":Node_3_2_0" index="0" speed="13.89" length="21.41" shape="-412.70,-105.47 -409.56,-99.92 -406.83,-96.35 -404.09,-92.92 -400.92,-87.77"/>
        <lane id=":Node_3_2_1" index="1" speed="13.89" length="21.41" shape="-415.62,-104.14 -412.44,-98.52 -409.68,-94.90 -406.92,-91.43 -403.75,-86.27"/>
    </edge>
    <edge id=":Node_3_4" function="internal">
        <lane id=":Node_3_4_0" index="0" speed="13.89" length="0.75" shape="-418.53,-102.81 -418.48,-102.07"/>
    </edge>
    <edge id=":Node_3_10" function="internal">
        <lane id=":Node_3_10_0" index="0" speed="13.89" length="30.62" shape="-418.48,-102.07 -418.07,-94.80 -423.37,-89.21 -430.07,-84.21 -433.83,-77.98"/>
    </edge>
    <edge id=":Node_3_5" function="internal">
        <lane id=":Node_3_5_0" index="0" speed="13.89" length="36.89" shape="-435.11,-95.24 -427.80,-89.56 -417.44,-89.70 -407.36,-90.75 -400.92,-87.77"/>
        <lane id=":Node_3_5_1" index="1" speed="13.89" length="36.89" shape="-438.02,-93.91 -430.69,-88.20 -420.30,-88.28 -410.20,-89.27 -403.75,-86.27"/>
    </edge>
    <edge id=":Node_3_7" function="internal">
        <lane id=":Node_3_7_0" index="0" speed="13.89" length="16.78" shape="-440.93,-92.58 -438.27,-88.32 -435.78,-85.54 -434.08,-82.63 -433.83,-77.98"/>
    </edge>
    <edge id=":Node_3_8" function="internal">
        <lane id=":Node_3_8_0" index="0" speed="11.64" length="54.36" shape="-440.19,-78.70 -434.48,-92.28 -423.55,-98.99 -411.13,-97.83 -400.92,-87.77"/>
        <lane id=":Node_3_8_1" index="1" speed="10.76" length="46.12" shape="-437.01,-78.34 -432.17,-89.90 -422.92,-95.68 -412.40,-94.76 -403.75,-86.27"/>
    </edge>
    <edge id=":Node_4_0" function="internal">
        <lane id=":Node_4_0_0" index="0" speed="13.89" length="55.58" shape="-339.55,38.21 -349.53,26.00 -360.55,17.68 -372.63,13.24 -385.76,12.69"/>
    </edge>
    <edge id=":Node_4_1" function="internal">
        <lane id=":Node_4_1_0" index="0" speed="13.89" length="82.81" shape="-339.55,38.21 -347.96,24.86 -361.38,2.93 -374.65,-19.10 -382.57,-32.74"/>
        <lane id=":Node_4_1_1" index="1" speed="13.89" length="82.81" shape="-336.89,36.43 -345.27,23.12 -358.64,1.29 -371.85,-20.64 -379.74,-34.24"/>
    </edge>
    <edge id=":Node_4_3" function="internal">
        <lane id=":Node_4_3_0" index="0" speed="12.49" length="6.31" shape="-336.89,36.43 -339.64,30.75"/>
    </edge>
    <edge id=":Node_4_16" function="internal">
        <lane id=":Node_4_16_0" index="0" speed="12.49" length="52.31" shape="-339.64,30.75 -344.76,20.15 -346.89,4.79 -341.94,-5.67 -328.56,-7.23"/>
    </edge>
    <edge id=":Node_4_4" function="internal">
        <lane id=":Node_4_4_0" index="0" speed="10.92" length="44.36" shape="-330.76,2.12 -340.27,1.87 -343.57,6.91 -340.67,17.25 -331.57,32.87"/>
    </edge>
    <edge id=":Node_4_5" function="internal">
        <lane id=":Node_4_5_0" index="0" speed="13.89" length="56.82" shape="-330.76,2.12 -344.12,2.21 -360.01,5.77 -375.02,10.14 -385.76,12.69"/>
        <lane id=":Node_4_5_1" index="1" speed="13.89" length="56.82" shape="-330.03,-1.00 -343.55,-0.91 -359.80,2.62 -375.18,6.96 -386.08,9.50"/>
    </edge>
    <edge id=":Node_4_7" function="internal">
        <lane id=":Node_4_7_0" index="0" speed="13.89" length="1.98" shape="-329.30,-4.11 -331.20,-4.67"/>
    </edge>
    <edge id=":Node_4_17" function="internal">
        <lane id=":Node_4_17_0" index="0" speed="13.89" length="58.44" shape="-331.20,-4.67 -347.16,-9.37 -361.52,-16.15 -372.38,-24.44 -379.74,-34.24"/>
    </edge>
    <edge id=":Node_4_8" function="internal">
        <lane id=":Node_4_8_0" index="0" speed="13.89" length="53.85" shape="-374.09,-37.24 -368.25,-30.29 -358.47,-24.00 -344.76,-18.39 -327.10,-13.46"/>
    </edge>
    <edge id=":Node_4_9" function="internal">
        <lane id=":Node_4_9_0" index="0" speed="13.89" length="82.17" shape="-374.09,-37.24 -366.25,-23.73 -353.15,-1.99 -339.90,19.65 -331.57,32.87"/>
        <lane id=":Node_4_9_1" index="1" speed="13.89" length="82.17" shape="-376.92,-35.74 -369.05,-22.18 -355.90,-0.35 -342.58,21.39 -334.23,34.65"/>
    </edge>
    <edge id=":Node_4_11" function="internal">
        <lane id=":Node_4_11_0" index="0" speed="13.85" length="6.55" shape="-376.92,-35.74 -374.26,-29.76"/>
    </edge>
    <edge id=":Node_4_18" function="internal">
        <lane id=":Node_4_18_0" index="0" speed="13.85" length="51.26" shape="-374.26,-29.76 -369.69,-19.48 -367.42,-5.59 -372.19,4.53 -386.08,9.50"/>
    </edge>
    <edge id=":Node_4_12" function="internal">
        <lane id=":Node_4_12_0" index="0" speed="12.14" length="44.12" shape="-386.72,3.13 -378.21,0.06 -374.68,-6.95 -376.13,-17.88 -382.57,-32.74"/>
    </edge>
    <edge id=":Node_4_13" function="internal">
        <lane id=":Node_4_13_0" index="0" speed="13.89" length="60.25" shape="-386.72,3.13 -375.38,0.12 -359.02,-5.27 -341.80,-9.82 -327.83,-10.34"/>
        <lane id=":Node_4_13_1" index="1" speed="13.89" length="60.25" shape="-386.40,6.32 -375.22,3.30 -359.23,-2.12 -342.36,-6.70 -328.56,-7.23"/>
    </edge>
    <edge id=":Node_4_15" function="internal">
        <lane id=":Node_4_15_0" index="0" speed="13.89" length="2.67" shape="-386.40,6.32 -383.74,6.42"/>
    </edge>
    <edge id=":Node_4_19" function="internal">
        <lane id=":Node_4_19_0" index="0" speed="13.89" length="59.86" shape="-383.74,6.42 -371.46,6.91 -357.79,11.82 -345.38,21.07 -334.23,34.65"/>
    </edge>
    <edge id=":Node_5_0" function="internal">
        <lane id=":Node_5_0_0" index="0" speed="13.89" length="24.95" shape="-178.69,49.52 -186.37,51.64 -191.99,51.82 -197.50,50.17 -204.85,46.78"/>
        <lane id=":Node_5_0_1" index="1" speed="13.89" length="24.95" shape="-179.70,46.48 -186.68,48.40 -191.79,48.53 -196.80,46.99 -203.48,43.89"/>
        <lane id=":Node_5_0_2" index="2" speed="13.89" length="24.95" shape="-180.71,43.45 -187.00,45.15 -191.59,45.23 -196.10,43.80 -202.11,41.00"/>
    </edge>
    <edge id=":Node_5_3" function="internal">
        <lane id=":Node_5_3_0" index="0" speed="13.03" length="17.49" shape="-197.99,32.32 -193.98,34.24 -190.99,35.33 -187.94,35.42 -183.75,34.34"/>
        <lane id=":Node_5_3_1" index="1" speed="13.89" length="17.49" shape="-199.36,35.21 -194.68,37.42 -191.19,38.62 -187.62,38.66 -182.74,37.38"/>
        <lane id=":Node_5_3_2" index="2" speed="13.89" length="17.49" shape="-200.73,38.10 -195.38,40.60 -191.38,41.92 -187.31,41.90 -181.73,40.41"/>
    </edge>
    <edge id=":Node_6_0" function="internal">
        <lane id=":Node_6_0_0" index="0" speed="13.89" length="17.65" shape="-60.33,3.32 -63.82,7.95 -66.61,10.91 -70.03,13.00 -75.40,15.03"/>
        <lane id=":Node_6_0_1" index="1" speed="13.89" length="17.65" shape="-62.89,1.40 -66.03,5.58 -68.52,8.26 -71.58,10.16 -76.41,11.99"/>
        <lane id=":Node_6_0_2" index="2" speed="13.89" length="17.65" shape="-65.46,-0.51 -68.24,3.21 -70.44,5.61 -73.14,7.32 -77.42,8.96"/>
    </edge>
    <edge id=":Node_6_3" function="internal">
        <lane id=":Node_6_3_0" index="0" speed="12.67" length="11.76" shape="-80.46,-0.15 -77.82,-1.20 -76.18,-2.34 -74.86,-3.90 -73.15,-6.26"/>
        <lane id=":Node_6_3_1" index="1" speed="13.84" length="11.76" shape="-79.45,2.89 -76.26,1.64 -74.27,0.31 -72.65,-1.53 -70.59,-4.34"/>
        <lane id=":Node_6_3_2" index="2" speed="13.89" length="11.76" shape="-78.44,5.92 -74.70,4.48 -72.35,2.96 -70.44,0.84 -68.02,-2.43"/>
    </edge>
    <edge id=":Node_7_0" function="internal">
        <lane id=":Node_7_0_0" index="0" speed="13.89" length="45.37" shape="-2.89,-82.13 -4.29,-70.56 -2.53,-58.12 -0.05,-46.48 0.72,-37.26"/>
    </edge>
    <edge id=":Node_7_1" function="internal">
        <lane id=":Node_7_1_0" index="0" speed="13.89" length="30.04" shape="-2.89,-82.13 -5.96,-73.59 -8.46,-67.66 -11.69,-62.12 -16.97,-54.75"/>
        <lane id=":Node_7_1_1" index="1" speed="13.89" length="30.04" shape="-5.90,-83.21 -8.90,-74.82 -11.26,-69.16 -14.34,-63.88 -19.53,-56.67"/>
        <lane id=":Node_7_1_2" index="2" speed="13.89" length="30.04" shape="-8.91,-84.29 -11.81,-76.16 -14.09,-70.68 -17.08,-65.57 -22.10,-58.58"/>
    </edge>
    <edge id=":Node_7_4" function="internal">
        <lane id=":Node_7_4_0" index="0" speed="13.89" length="27.18" shape="-29.79,-64.33 -25.27,-70.63 -22.59,-75.24 -20.56,-80.20 -17.95,-87.53"/>
        <lane id=":Node_7_4_1" index="1" speed="13.89" length="27.18" shape="-27.23,-62.41 -22.54,-68.94 -19.76,-73.72 -17.64,-78.85 -14.94,-86.45"/>
        <lane id=":Node_7_4_2" index="2" speed="13.89" length="27.18" shape="-24.66,-60.50 -19.81,-67.26 -16.93,-72.20 -14.73,-77.51 -11.93,-85.37"/>
    </edge>
    <edge id=":Node_7_7" function="internal">
        <lane id=":Node_7_7_0" index="0" speed="10.23" length="1.93" shape="-24.66,-60.50 -23.00,-61.48"/>
    </edge>
    <edge id=":Node_7_11" function="internal">
        <lane id=":Node_7_11_0" index="0" speed="10.23" length="41.09" shape="-23.00,-61.48 -16.43,-65.38 -8.79,-60.98 -3.54,-50.62 -2.46,-37.65"/>
    </edge>
    <edge id=":Node_7_8" function="internal">
        <lane id=":Node_7_8_0" index="0" speed="8.73" length="30.82" shape="-8.82,-38.42 -7.85,-51.64 -8.88,-58.77 -11.92,-59.81 -16.97,-54.75"/>
    </edge>
    <edge id=":Node_7_9" function="internal">
        <lane id=":Node_7_9_0" index="0" speed="13.89" length="48.50" shape="-8.82,-38.42 -9.98,-48.12 -13.32,-60.86 -15.95,-74.38 -14.94,-86.45"/>
        <lane id=":Node_7_9_1" index="1" speed="13.89" length="48.50" shape="-5.64,-38.03 -6.82,-47.63 -10.23,-60.13 -12.91,-73.41 -11.93,-85.37"/>
    </edge>
    <edge id=":Node_8_0" function="internal">
        <lane id=":Node_8_0_0" index="0" speed="11.85" length="53.67" shape="-52.49,401.65 -58.09,414.70 -68.69,420.37 -81.12,418.38 -92.19,408.48"/>
        <lane id=":Node_8_0_1" index="1" speed="10.96" length="45.69" shape="-55.67,401.26 -60.44,412.32 -69.49,417.01 -80.10,415.19 -89.53,406.70"/>
    </edge>
    <edge id=":Node_8_2" function="internal">
        <lane id=":Node_8_2_0" index="0" speed="10.10" length="38.48" shape="-84.21,403.14 -75.88,413.36 -69.41,416.33 -64.79,412.04 -62.03,400.49"/>
        <lane id=":Node_8_2_1" index="1" speed="11.32" length="48.87" shape="-86.87,404.92 -76.38,417.75 -68.21,421.35 -62.37,415.73 -58.85,400.88"/>
    </edge>
    <edge id=":Node_9_0" function="internal">
        <lane id=":Node_9_0_0" index="0" speed="13.89" length="72.94" shape="110.32,-242.69 93.36,-263.42 79.09,-272.25 67.53,-269.16 58.68,-254.17"/>
    </edge>
    <edge id=":Node_9_1" function="internal">
        <lane id=":Node_9_1_0" index="0" speed="13.89" length="59.58" shape="110.32,-242.69 105.31,-255.20 102.22,-271.74 99.90,-288.65 97.19,-302.27"/>
        <lane id=":Node_9_1_1" index="1" speed="13.89" length="59.58" shape="112.96,-244.50 108.05,-256.76 105.18,-272.75 103.08,-289.12 100.47,-302.49"/>
        <lane id=":Node_9_1_2" index="2" speed="13.89" length="59.58" shape="115.60,-246.31 110.78,-258.32 108.14,-273.77 106.26,-289.58 103.75,-302.70"/>
    </edge>
    <edge id=":Node_9_4" function="internal">
        <lane id=":Node_9_4_0" index="0" speed="12.37" length="16.28" shape="115.60,-246.31 110.36,-261.07 110.53,-261.67"/>
    </edge>
    <edge id=":Node_9_17" function="internal">
        <lane id=":Node_9_17_0" index="0" speed="12.37" length="41.43" shape="110.53,-261.67 113.94,-273.73 124.50,-281.64 140.20,-282.17"/>
    </edge>
    <edge id=":Node_9_5" function="internal">
        <lane id=":Node_9_5_0" index="0" speed="10.72" length="42.96" shape="138.06,-272.81 124.22,-274.45 117.18,-271.49 116.94,-263.92 123.51,-251.76"/>
    </edge>
    <edge id=":Node_9_6" function="internal">
        <lane id=":Node_9_6_0" index="0" speed="13.89" length="93.50" shape="138.77,-275.93 107.34,-280.63 83.01,-278.76 65.79,-270.29 55.67,-255.25"/>
    </edge>
    <edge id=":Node_9_7" function="internal">
        <lane id=":Node_9_7_0" index="0" speed="13.89" length="19.81" shape="139.48,-279.05 125.76,-283.15 120.86,-285.62"/>
    </edge>
    <edge id=":Node_9_18" function="internal">
        <lane id=":Node_9_18_0" index="0" speed="13.89" length="24.89" shape="120.86,-285.62 115.23,-288.47 107.89,-294.98 103.75,-302.70"/>
    </edge>
    <edge id=":Node_9_8" function="internal">
        <lane id=":Node_9_8_0" index="0" speed="13.89" length="32.83" shape="113.55,-303.35 116.37,-298.97 121.99,-295.03 130.41,-291.50 141.62,-288.41"/>
    </edge>
    <edge id=":Node_9_9" function="internal">
        <lane id=":Node_9_9_0" index="0" speed="13.89" length="54.54" shape="113.55,-303.35 115.79,-290.98 117.01,-276.82 118.99,-263.02 123.51,-251.76"/>
        <lane id=":Node_9_9_1" index="1" speed="13.89" length="54.54" shape="110.26,-303.13 112.61,-290.52 114.05,-275.80 116.25,-261.45 120.87,-249.94"/>
        <lane id=":Node_9_9_2" index="2" speed="13.89" length="54.54" shape="106.98,-302.92 109.42,-290.05 111.09,-274.78 113.52,-259.89 118.24,-248.13"/>
    </edge>
    <edge id=":Node_9_12" function="internal">
        <lane id=":Node_9_12_0" index="0" speed="13.89" length="1.46" shape="106.98,-302.92 106.30,-301.62"/>
    </edge>
    <edge id=":Node_9_19" function="internal">
        <lane id=":Node_9_19_0" index="0" speed="13.89" length="71.48" shape="106.30,-301.62 101.08,-291.58 83.39,-279.55 63.91,-267.55 52.66,-256.33"/>
    </edge>
    <edge id=":Node_9_13" function="internal">
        <lane id=":Node_9_13_0" index="0" speed="13.89" length="70.49" shape="43.62,-259.56 54.74,-270.17 73.94,-280.83 91.38,-291.53 97.19,-302.27"/>
        <lane id=":Node_9_13_1" index="1" speed="13.89" length="70.49" shape="46.63,-258.48 57.79,-269.30 77.09,-280.40 94.62,-291.55 100.47,-302.49"/>
    </edge>
    <edge id=":Node_9_15" function="internal">
        <lane id=":Node_9_15_0" index="0" speed="13.89" length="107.50" shape="46.63,-258.48 58.52,-276.92 78.20,-287.53 105.66,-290.32 140.91,-285.29"/>
    </edge>
    <edge id=":Node_9_16" function="internal">
        <lane id=":Node_9_16_0" index="0" speed="13.89" length="33.69" shape="49.65,-257.40 62.76,-275.68 73.85,-277.26"/>
    </edge>
    <edge id=":Node_9_20" function="internal">
        <lane id=":Node_9_20_0" index="0" speed="13.89" length="55.76" shape="73.85,-277.26 80.62,-278.22 100.14,-268.03 118.24,-248.13"/>
    </edge>

    <edge id="-E0" from="Node_1" to="J6" priority="-1" shape="-459.47,31.38 -561.30,195.30">
        <lane id="-E0_0" index="0" speed="13.89" length="192.97" shape="-455.39,33.91 -557.22,197.83"/>
        <lane id="-E0_1" index="1" speed="13.89" length="192.97" shape="-458.11,32.22 -559.94,196.14"/>
    </edge>
    <edge id="-E10" from="Node_10" to="Node_11" priority="-1" shape="65.55,-422.07 -19.14,-550.40">
        <lane id="-E10_0" index="0" speed="13.89" length="142.48" shape="52.66,-427.08 -25.82,-545.99"/>
        <lane id="-E10_1" index="1" speed="13.89" length="142.48" shape="55.33,-428.84 -23.15,-547.76"/>
        <lane id="-E10_2" index="2" speed="13.89" length="142.48" shape="58.00,-430.60 -20.48,-549.52"/>
    </edge>
    <edge id="-E11" from="Node_4" to="Node_3" priority="-1" shape="-378.33,-34.99 -405.16,-85.52">
        <lane id="-E11_0" index="0" speed="13.89" length="57.21" shape="-382.57,-32.74 -409.40,-83.27"/>