<?xml version="1.0" encoding="UTF-8"?>

<!-- generated on 2025-09-08 00:04:11 by Eclipse SUMO netedit Version 1.24.0
-->

<routes xmlns:xsi="http://www.w3.org/2001/XMLSchema-instance" xsi:noNamespaceSchemaLocation="http://sumo.dlr.de/xsd/routes_file.xsd">
    <!-- VTypes -->
    <vType id="authority" vClass="authority"/>
    <vType id="bus" vClass="bus"/>
    <vType id="emergency" vClass="emergency"/>
    <vType id="trailer" vClass="trailer"/>
    <vType id="vip" vClass="vip"/>
    <!-- Vehicles, persons and containers (sorted by depart) -->
    <trip id="t_0" type="emergency" depart="0.00" color="white" from="E0" to="E23" via="-E13 E14 E17 E19 E20 E21"/>
    <trip id="t_1" type="authority" depart="0.00" color="139,131,120" from="E7" to="-E0" via="-E6 E5 E12 E13"/>
    <trip id="t_2" type="authority" depart="0.00" color="139,131,120" from="E2" to="E24" via="E6 E9 E10 E22"/>
    <trip id="t_3" type="bus" depart="0.00" color="139,131,120" from="E2" to="E23" via="E6 E9 E10 E22"/>
    <trip id="yellow_cars" depart="0.00" from="E0" to="E24" via="-E13 -E12 E11 E16 E17 E19 E20 E21 -E18 E21"/>
    <flow id="f_0" begin="0.00" from="-E16" to="-E16" end="3600.00" vehsPerHour="1800"/>
    <flow id="f_1" begin="0.00" color="red" from="E2" to="E24" via="E5 E11 E16 -E18 E21" end="3600.00" vehsPerHour="1800"/>
    <flow id="f_2" begin="0.00" color="green" from="E1" to="-E7" via="E15 E14 E17 E19 E20 E21 -E22 -E10 -E9" end="3600.00" vehsPerHour="1800"/>
    <flow id="f_3" type="DEFAULT_TAXITYPE" begin="0.00" color="magenta" from="-E24" to="E12" via="-E22 -E10 -E9 -E6 E4 E3 E12 E14 -E11" end="3600.00" vehsPerHour="1800"/>
    <flow id="f_4" begin="0.00" color="white" from="-E24" to="-E0" via="-E21 E18 -E16 -E14 -E15" end="3600.00" vehsPerHour="1800"/>
    <flow id="f_5" type="trailer" begin="0.00" color="white" from="E7" to="E23" via="E9 E10 E22" end="3600.00" vehsPerHour="1800"/>
</routes>
