<?xml version="1.0" encoding="UTF-8"?>

<!-- generated on 2025-09-08 00:12:00 by Eclipse SUMO sumo Version 1.24.0
-->

<sumoConfiguration xmlns:xsi="http://www.w3.org/2001/XMLSchema-instance" xsi:noNamespaceSchemaLocation="http://sumo.dlr.de/xsd/sumoConfiguration.xsd">

    <input>
        <net-file value="Test_Traffic.net.xml"/>
        <route-files value="Test_Traffic.rou.xml"/>
    </input>
    <!-- Below are the modification i made ! -->
    <time>
        <begin value="0"/>
        <end value="1000"/>
    </time>
    <report>
        <tripinfo-output value="tripinfo.xml"/>
    </report>


</sumoConfiguration>

